Circuit: * C:\users\samgriffen\My Documents\Projects\GBA_lipo\sims\buck.asc

.OP point found by inspection.

Date: Sun Aug 07 15:31:15 2022
Total elapsed time: 0.389 seconds.

tnom = 27
temp = 27
method = modified trap
totiter = 28338
traniter = 28338
tranpoints = 9973
accept = 8307
rejected = 1666
matrix size = 10
fillins = 0
solver = Normal
Matrix Compiler1: 480 bytes object code size  0.2/0.1/[0.1]
Matrix Compiler2: 768 bytes object code size  0.1/0.2/[0.1]

