Circuit: * C:\users\samgriffen\My Documents\Projects\GBA_lipo\sims\voltage_Switch.asc

.OP point found by inspection.

Date: Wed Oct 05 18:28:19 2022
Total elapsed time: 0.243 seconds.

tnom = 27
temp = 27
method = modified trap
totiter = 25797
traniter = 25797
tranpoints = 8861
accept = 7448
rejected = 1413
matrix size = 10
fillins = 0
solver = Normal
Matrix Compiler1: 480 bytes object code size  0.1/0.1/[0.1]
Matrix Compiler2: 768 bytes object code size  0.1/0.1/[0.1]

